kpg193_v2_0_2028/network/m/KPG193_ver2_0_2028.m
function mpc = KPG193_ver2_0_2028
% Generated from KPG193_ver1_6 ACOPF hourly result.
% Bus voltage angle Va is in degrees, matching MATPOWER case format.
mpc.version = '2';

%-----  Power Flow Data  -----%%
% system MVA base
mpc.baseMVA = 100;

% bus data
%	bus_i	type	Pd	Qd	Gs	Bs	area	Vm	Va	baseKV	zone	Vmax	Vmin
mpc.bus = [
	1	1	65.2236810772	6.52236810772	0	0	1	1.01124632769	-18.9314245947	154	1	1.1	0.9	;
	2	1	78.8312221472	7.88312221472	0	0	1	1.01257691287	-20.7950547706	345	1	1.05	0.95	;
	3	1	361.550623744	36.1550623744	0	0	1	1.01258495462	-20.7418583231	345	1	1.05	0.95	;
	4	1	83.8568421749	8.38568421749	0	0	1	1.01315312531	-21.2266727191	345	1	1.05	0.95	;
	5	1	70.6590072219	9.46926223409	0	0	1	1.02579294805	-11.4928728876	154	1	1.1	0.9	;
	6	1	80.5683729744	8.05683729744	0	0	1	1.01232721617	-22.3854516275	154	1	1.1	0.9	;
	7	1	543.635608614	54.3635608614	0	0	1	1.01398690869	-21.3269841751	345	1	1.05	0.95	;
	8	1	1240.93900092	124.093900092	0	0	1	1.01230041948	-22.2481984522	345	1	1.05	0.95	;
	9	1	314.167630497	31.4167630497	0	0	1	1.01499818587	-21.7333260188	154	1	1.1	0.9	;
	10	2	690.213887695	69.0213887695	0	0	1	1.01316123779	-22.1775786733	154	1	1.1	0.9	;
	11	1	571.691324605	57.1691324605	0	0	1	1.01308031135	-22.4018714384	345	1	1.05	0.95	;
	12	1	313.693887618	31.3693887618	0	0	1	1.01488746608	-21.7514521534	154	1	1.1	0.9	;
	13	1	338.107020734	33.8107020734	0	0	1	1.01512813759	-21.7325642865	154	1	1.1	0.9	;
	14	1	362.594781691	36.2594781691	0	0	1	1.01494639954	-21.7801433283	345	1	1.05	0.95	;
	15	1	107.262604727	10.7262604727	0	0	1	1.01568823881	-21.6509646622	154	1	1.1	0.9	;
	16	1	462.091527501	46.2091527501	0	0	1	1.01598679629	-21.6163857965	345	1	1.05	0.95	;
	17	1	498.277044774	49.8277044774	0	0	1	1.01565885645	-21.7023726975	345	1	1.05	0.95	;
	18	1	520.221912905	52.0221912905	0	0	1	1.01547218665	-21.7375376322	345	1	1.05	0.95	;
	19	1	489.754517104	48.9754517104	0	0	1	1.01498182811	-21.7811341778	345	1	1.05	0.95	;
	20	2	249.095946721	25.2918531416	0	0	1	1.01499046014	-21.1635590593	154	1	1.1	0.9	;
	21	2	762.577470587	76.3420150313	0	0	1	1.01488074846	-22.1367924943	345	1	1.05	0.95	;
	22	1	616.479964811	61.6479964811	0	0	1	1.01569375312	-21.5987660962	345	1	1.05	0.95	;
	23	1	360.75878232	36.075878232	0	0	1	1.01453251761	-21.8228178332	345	1	1.05	0.95	;
	24	1	590.208647566	59.0208647566	0	0	1	1.01496542993	-22.0058043467	154	1	1.1	0.9	;
	25	1	477.285700025	47.7285700025	0	0	1	1.01474826967	-22.0270170201	154	1	1.1	0.9	;
	26	1	563.334550779	56.3334550779	0	0	1	1.015839475	-21.935428088	345	1	1.05	0.95	;
	27	2	19.7452046419	3.20884978761	0	0	1	1.01715785883	-21.7609347313	345	1	1.05	0.95	;
	28	1	127.714354373	12.7714354373	0	0	1	1.01318430278	-17.3845973037	765	1	1.05	0.95	;
	29	1	621.101148825	62.1101415047	0	0	1	1.01454542139	-21.6451883358	345	1	1.05	0.95	;
	30	1	482.584066212	48.2584066212	0	0	1	1.01449153188	-21.6483206147	154	1	1.1	0.9	;
	31	1	392.47975738	39.247975738	0	0	1	1.01381400207	-21.8723067532	154	1	1.1	0.9	;
	32	1	161.820541983	16.1820541983	0	0	1	1.01447064143	-21.8313163041	345	1	1.05	0.95	;
	33	1	466.638771125	46.6638771125	0	0	1	1.01426419988	-21.8426263865	154	1	1.1	0.9	;
	34	2	1043.58871908	104.358886634	0	0	1	1.01648142879	-21.8433480543	345	1	1.05	0.95	;
	35	1	635.763223575	63.5763223575	0	0	1	1.01271636512	-21.6970516063	154	1	1.1	0.9	;
	36	1	733.425514522	73.3425514522	0	0	1	1.01461317566	-21.6127565978	345	1	1.05	0.95	;
	37	1	899.165317015	89.9165317015	0	0	1	1.01479849393	-21.6221468011	345	1	1.05	0.95	;
	38	1	364.172216299	36.4172216299	0	0	1	1.01231571003	-20.5714653929	345	1	1.05	0.95	;
	39	1	702.590736314	70.2590736314	0	0	1	1.00606793203	-22.7529580329	154	1	1.1	0.9	;
	40	2	1065.00789953	106.500789953	0	0	1	1.01422489922	-20.372208009	345	1	1.05	0.95	;
	41	1	192.434034246	19.2434034246	0	0	1	1.00591396853	-15.593889618	154	1	1.1	0.9	;
	42	2	1174.42712955	117.442712955	0	0	1	1.0044499095	-18.9363721378	154	1	1.1	0.9	;
	43	2	612.121856782	61.2123257371	0	0	1	1.00920229683	-22.2158788407	154	1	1.1	0.9	;
	44	1	188.857303596	18.8857303596	0	0	1	1.0120267539	-21.0659011697	345	1	1.05	0.95	;
	45	1	345.788423118	34.5788423118	0	0	1	1.01150549115	-20.4173062014	345	1	1.05	0.95	;
	46	1	1087.80091344	108.780091344	0	0	1	1.01201883496	-20.5909966779	345	1	1.05	0.95	;
	47	1	2755.23204925	275.523234637	0	0	1	1.00698810366	-21.267815878	345	1	1.05	0.95	;
	48	2	192.189721084	19.2189721084	0	0	1	1.01205189395	-20.0811844897	154	1	1.1	0.9	;
	49	1	393.206659241	39.3206659241	0	0	1	1.00928308987	-19.479302042	154	1	1.1	0.9	;
	50	1	467.57039645	46.7591662661	0	0	1	1.01241283903	-18.870203778	765	1	1.05	0.95	;
	51	1	1873.28984359	187.328984359	0	0	1	1.00981368746	-19.4415013948	345	1	1.05	0.95	;
	52	2	431.098998812	43.1098998812	0	0	2	1.00803321681	-16.3721164841	154	1	1.1	0.9	;
	53	2	894.701547055	89.4701547055	0	0	2	1.02237199318	-12.4922751941	765	1	1.05	0.95	;
	54	1	384.416229552	38.4416229552	0	0	2	1.01102007505	-17.8435757738	345	1	1.05	0.95	;
	55	1	1118.96874384	111.896874384	0	0	2	1.01246201806	-15.880470074	345	1	1.05	0.95	;
	56	1	155.464538501	15.5464538501	0	0	2	1.00744977681	-17.4719057806	154	1	1.1	0.9	;
	57	1	1761.87902465	176.188030375	0	0	2	1.01139386527	-16.1155939443	345	1	1.05	0.95	;
	58	1	1318.89106768	131.889497818	0	0	2	1.02520177793	-11.1654009439	345	1	1.05	0.95	;
	59	2	119.748327176	11.9759714394	0	0	2	1.0292547236	-9.71309682079	345	1	1.05	0.95	;
	60	1	174.406882118	17.4406882118	0	0	2	1.01594449088	-14.2713867074	345	1	1.05	0.95	;
	61	1	834.962976241	83.4963538922	0	0	2	1.01067244438	-17.414757648	154	1	1.1	0.9	;
	62	1	982.754046556	98.2754046556	0	0	2	1.01253607818	-17.0357952705	765	1	1.05	0.95	;
	63	1	135.844947819	13.6155093297	0	0	2	1.02025778321	-13.3240093033	765	1	1.05	0.95	;
	64	1	496.107080544	49.6107080544	0	0	2	1.0074203683	-14.9881982201	345	1	1.05	0.95	;
	65	1	53.2210841239	11.7982336141	0	0	3	1.01752901892	-4.56069486019	154	1	1.1	0.9	;
	66	1	25.8465087755	3.40819669085	0	0	3	1.01496115001	-13.1879046243	154	1	1.1	0.9	;
	67	1	23.1439015786	2.70030632466	0	0	3	1.01336956442	-10.324910516	154	1	1.1	0.9	;
	68	1	40.3222115783	4.26334190105	0	0	3	1.02141053735	-2.82872414674	345	1	1.05	0.95	;
	69	1	44.3621452459	4.43621452459	0	0	3	1.01386963197	-8.23695467412	154	1	1.1	0.9	;
	70	1	244.678297776	24.4678297776	0	0	3	1.01526534233	-13.065365947	154	1	1.1	0.9	;
	71	2	255.92176153	27.5941817501	0	0	3	1.0249186194	-0.690087733987	345	1	1.05	0.95	;
	72	1	96.339630036	9.6339630036	0	0	3	1.01161243152	-12.3643183562	154	1	1.1	0.9	;
	73	2	299.15404164	31.2860133851	0	0	3	1.02583446231	1.58103713007	345	1	1.05	0.95	;
	74	1	71.2621365104	8.89728159496	0	0	3	1.0098245184	-12.7662966592	154	1	1.1	0.9	;
	75	2	184.64627139	18.464627139	0	0	3	1.03029871112	3.51988327483	345	1	1.05	0.95	;
	76	1	81.2409700451	8.21980400514	0	0	3	1.00990212873	-3.83988767638	154	1	1.1	0.9	;
	77	1	338.979317009	33.8979317009	0	0	3	1.00573041027	-13.8818280841	154	1	1.1	0.9	;
	78	1	52.9636182502	8.20419042835	0	0	3	1.02368226898	-9.10389264191	154	1	1.1	0.9	;
	79	1	114.759937598	14.9548860351	0	0	3	1.0054340971	-6.45226157292	154	1	1.1	0.9	;
	80	1	-163.364446364	3.96823547112	0	0	3	1.01525829291	-2.52817152216	765	1	1.05	0.95	;
	81	1	216.592683963	21.6598782313	0	0	3	1.00633180176	-10.0259981102	345	1	1.05	0.95	;
	82	2	59.9341002952	9.41785116269	0	0	3	1.02254507073	1.66144329499	765	1	1.05	0.95	;
	83	1	247.665991938	24.7667834378	0	0	3	0.998280581446	-8.94907394003	154	1	1.1	0.9	;
	84	1	343.247673874	36.1274507748	0	0	3	1.00679305875	-15.9845927133	345	1	1.05	0.95	;
	85	1	233.260167703	23.3260167703	0	0	3	1.00383948895	-6.44875884545	154	1	1.1	0.9	;
	86	1	228.424417479	22.8424592425	0	0	3	1.00571468371	-7.01993016343	345	1	1.05	0.95	;
	87	1	13.9620347523	5.22569004178	0	0	3	1.00400550764	-7.66324791463	345	1	1.05	0.95	;
	88	1	14.6938219765	1.46938219765	0	0	3	1.00274797479	-6.89087571887	154	1	1.1	0.9	;
	89	1	79.2619685872	7.92625612469	0	0	3	1.00019559323	-9.42794580407	154	1	1.1	0.9	;
	90	1	150.918452431	15.8739809175	0	0	3	1.0033757251	-7.95837458184	154	1	1.1	0.9	;
	91	1	53.1385339487	5.31385339487	0	0	3	1.00515934747	-15.7847037926	154	1	1.1	0.9	;
	92	1	-11.311959008	2.69692946745	0	0	3	1.00398129018	-7.63693885363	345	1	1.05	0.95	;
	93	1	105.147751368	10.5147751368	0	0	3	0.997248233042	-11.3093510425	154	1	1.1	0.9	;
	94	1	18.1399948627	3.88669946357	0	0	3	1.00031285592	-5.59257595606	154	1	1.1	0.9	;
	95	1	59.7257924747	5.97257924747	0	0	3	1.00050611989	-8.09331992801	345	1	1.05	0.95	;
	96	2	154.520633196	15.4520633196	0	0	4	1.01477189689	-12.071257351	154	1	1.1	0.9	;
	97	1	48.079987808	4.8079987808	0	0	4	1.01658846664	-11.3505410783	345	1	1.05	0.95	;
	98	1	244.085544059	24.788139778	0	0	4	1.00153946067	-15.0907840603	154	1	1.1	0.9	;
	99	1	795.311653151	79.5311653151	0	0	4	0.999225204326	-15.5965703789	154	1	1.1	0.9	;
	100	2	186.379490741	18.6379490741	0	0	4	1.02189901424	-9.72242577205	345	1	1.05	0.95	;
	101	1	290.671935427	29.0671935427	0	0	4	0.999290720773	-15.2024194198	154	1	1.1	0.9	;
	102	1	85.5727911128	8.55727911128	0	0	4	1.00623970133	-13.0416785184	345	1	1.05	0.95	;
	103	1	89.7091252721	8.97091252721	0	0	4	1.0145382516	-11.1538586665	154	1	1.1	0.9	;
	104	1	189.512877247	18.9512877247	0	0	4	1.01037784386	-12.3280623066	345	1	1.05	0.95	;
	105	1	127.043476046	12.7043476046	0	0	4	1.00176918462	-12.7155423301	154	1	1.1	0.9	;
	106	2	150.350346064	15.0353619482	0	0	4	1.00758144414	-9.01835368743	154	1	1.1	0.9	;
	107	1	-10.8934473239	2.85483439958	0	0	4	1.00127969383	-11.4792213203	345	1	1.05	0.95	;
	108	1	773.064113456	78.0378923793	0	0	4	1.0054115811	-9.90394322885	345	1	1.05	0.95	;
	109	1	408.659466733	40.8659466733	0	0	4	1.00550987699	-10.1060716901	345	1	1.05	0.95	;
	110	1	239.151695356	23.9151695356	0	0	4	0.997884237739	-11.2708571306	154	1	1.1	0.9	;
	111	1	151.443082039	15.1445657192	0	0	4	1.00425325475	-8.41641505778	345	1	1.05	0.95	;
	112	1	27.9984287667	2.79984287667	0	0	4	0.999022744024	-11.370985309	154	1	1.1	0.9	;
	113	1	595.138950424	59.5148477167	0	0	4	0.996978736066	-11.0196226065	154	1	1.1	0.9	;
	114	1	65.556804815	6.58320770143	0	0	4	1.00200489589	-8.34789166911	154	1	1.1	0.9	;
	115	1	28.7067965264	2.87067965264	0	0	4	0.998506197216	-11.5841526378	154	1	1.1	0.9	;
	116	1	40.5245330705	4.05245330705	0	0	4	1.00080176505	-9.02691969562	154	1	1.1	0.9	;
	117	1	227.570596543	24.4692830197	0	0	4	1.00059119687	-7.69726012805	154	1	1.1	0.9	;
	118	1	76.5756797554	8.88682106016	0	0	4	1.00792999911	-2.77050086748	154	1	1.1	0.9	;
	119	1	89.5278561388	8.95278561388	0	0	4	1.00692096215	-6.54893491888	345	1	1.05	0.95	;
	120	1	36.708544014	3.6708544014	0	0	4	1.0016635558	-8.02427927866	154	1	1.1	0.9	;
	121	1	85.4273966995	8.54273966995	0	0	4	1.00115735345	-5.45381715677	154	1	1.1	0.9	;
	122	1	70.7423503395	7.07423503395	0	0	4	1.00228091665	-6.69919449561	154	1	1.1	0.9	;
	123	1	57.5368729127	5.75368729127	0	0	4	1.00234797469	-7.78134592664	154	1	1.1	0.9	;
	124	2	-232.154677144	11.181581577	0	0	4	1.01667678227	0.407766902728	345	1	1.05	0.95	;
	125	1	23.8141446391	2.38141446391	0	0	4	1.00197173288	-7.95472285241	154	1	1.1	0.9	;
	126	1	396.729893733	39.6729893733	0	0	4	1.00435040813	-5.76839601575	345	1	1.05	0.95	;
	127	1	312.620015456	31.2620875444	0	0	4	1.00234508063	-6.58228998838	154	1	1.1	0.9	;
	128	1	472.339341365	47.2339341365	0	0	4	0.993723742353	-8.52270514608	154	1	1.1	0.9	;
	129	1	55.9066441963	5.59066441963	0	0	4	1.00179247302	-9.65359695385	154	1	1.1	0.9	;
	130	1	70.7235354178	7.07235354178	0	0	4	1.0037858007	-6.68547090272	345	1	1.05	0.95	;
	131	1	181.240419544	18.1240419544	0	0	4	0.99934448994	-8.15935057118	154	1	1.1	0.9	;
	132	1	71.9326301676	9.72906260393	0	0	4	1.00246365058	-9.4570022596	154	1	1.1	0.9	;
	133	1	283.323054831	29.1196015241	0	0	4	1.00317872949	-8.05955224059	345	1	1.05	0.95	;
	134	1	663.434216541	66.3434216541	0	0	4	1.00399911772	-7.57682206527	345	1	1.05	0.95	;
	135	1	140.477390963	14.0797464604	0	0	4	1.00162951541	-9.57744761712	154	1	1.1	0.9	;
	136	1	85.2103727062	16.191033409	0	0	4	1.00375808581	-8.08602485306	345	1	1.05	0.95	;
	137	2	1926.87144086	192.687144086	0	0	4	1.00212799474	-8.23771264696	345	1	1.05	0.95	;
	138	1	41.6384045151	4.16384045151	0	0	4	1.00293106632	-9.08630283137	154	1	1.1	0.9	;
	139	1	-105.888951221	4.41758915624	0	0	4	1.00353052142	-9.22791740711	154	1	1.1	0.9	;
	140	1	51.0848290849	5.10848290849	0	0	4	1.00190626244	-9.37477686739	154	1	1.1	0.9	;
	141	1	53.0997106215	5.30997106215	0	0	4	1.00182301836	-9.31933583953	154	1	1.1	0.9	;
	142	1	72.1512229066	7.21512229066	0	0	4	1.00296948816	-8.99600806776	154	1	1.1	0.9	;
	143	1	103.714274815	10.3738878801	0	0	4	1.00049854941	-9.81974230452	154	1	1.1	0.9	;
	144	1	47.2677615251	4.77208895829	0	0	4	1.00079330176	-10.0520130603	154	1	1.1	0.9	;
	145	1	143.113667486	14.8235396286	0	0	4	0.994025877584	-11.6188604978	154	1	1.1	0.9	;
	146	1	38.5525393105	4.33554065269	0	0	5	0.993736483952	-9.31599308063	154	1	1.1	0.9	;
	147	1	58.7704437656	5.87704437656	0	0	5	1.00081553222	-12.9045798805	154	1	1.1	0.9	;
	148	1	318.189763526	31.8189951847	0	0	5	0.979097993163	-12.2436826691	154	1	1.1	0.9	;
	149	1	1258.79267666	125.879267666	0	0	5	0.984866260487	-10.8173092924	345	1	1.05	0.95	;
	150	1	698.253728066	70.0012460202	0	0	5	0.989693239713	-7.99130700875	345	1	1.05	0.95	;
	151	1	591.515992837	59.162088997	0	0	5	0.988988683011	-7.53617242976	345	1	1.05	0.95	;
	152	1	265.146896605	26.5146896605	0	0	5	0.988903551309	-9.22825083069	345	1	1.05	0.95	;
	153	1	207.770944004	20.7771495035	0	0	5	0.982233916523	-8.49362774645	154	1	1.1	0.9	;
	154	1	142.212796024	14.2212796024	0	0	5	0.984514603039	-10.4961856363	154	1	1.1	0.9	;
	155	1	398.497864525	39.8497864525	0	0	5	0.985197289542	-10.2074484306	154	1	1.1	0.9	;
	156	1	429.312072688	42.9312072688	0	0	5	0.985798676832	-8.50295795069	154	1	1.1	0.9	;
	157	1	202.105184802	20.2105184802	0	0	5	0.985926507546	-10.2984295982	154	1	1.1	0.9	;
	158	1	513.253499588	52.8734611885	0	0	5	0.984357019335	-7.31790837002	154	1	1.1	0.9	;
	159	1	367.739469283	36.7739469283	0	0	5	0.987126101888	-7.44724398559	345	1	1.05	0.95	;
	160	1	1049.5162449	104.951802383	0	0	5	0.990697024469	-10.404398902	154	1	1.1	0.9	;
	161	1	173.058877226	17.3058877226	0	0	5	0.994915800296	-7.74548308613	345	1	1.05	0.95	;
	162	1	62.4450400899	6.24450400899	0	0	5	0.994519853743	-8.33011926101	154	1	1.1	0.9	;
	163	1	65.6798727227	6.56798727227	0	0	5	0.991644931031	-5.7857202264	345	1	1.05	0.95	;
	164	1	51.4909479872	5.52359062799	0	0	5	0.994246218512	-8.23088219434	154	1	1.1	0.9	;
	165	1	1610.57491602	161.057491602	0	0	5	0.986640552043	-5.17130444532	345	1	1.05	0.95	;
	166	2	517.318587959	51.7318587959	0	0	5	0.994780877947	-2.22780757578	345	1	1.05	0.95	;
	167	2	2149.52143064	214.95223095	0	0	5	0.99413894874	-2.29446573541	345	1	1.05	0.95	;
	168	1	136.887541349	13.6887541349	0	0	5	0.997763588539	-3.91894782191	765	1	1.05	0.95	;
	169	1	38.577258883	3.8577258883	0	0	5	0.996155873036	-7.78615896429	154	1	1.1	0.9	;
	170	1	142.895942426	16.9515844944	0	0	5	0.992009353691	-4.63523627625	154	1	1.1	0.9	;
	171	1	15.1283248223	4.74537598183	0	0	5	1.00077098347	-5.83598748956	345	1	1.05	0.95	;
	172	1	453.588007741	50.0465683517	0	0	5	0.991185737634	-2.79790220082	154	1	1.1	0.9	;
	173	1	36.123049743	5.19329748634	0	0	5	1.00000629927	-5.78775338948	345	1	1.05	0.95	;
	174	1	376.585641688	37.6585641688	0	0	5	0.996898085366	-5.21523435231	345	1	1.05	0.95	;
	175	2	170.211437842	17.0743658992	0	0	5	1.00346025565	1.55029081912	765	1	1.05	0.95	;
	176	1	494.777614538	49.4778733033	0	0	5	0.994587591715	-4.13055770022	345	1	1.05	0.95	;
	177	1	632.625694977	63.2625694977	0	0	5	0.992153767893	-3.84753487371	345	1	1.05	0.95	;
	178	1	715.093145123	71.5093181556	0	0	5	0.98577190412	-5.28721355554	154	1	1.1	0.9	;
	179	1	381.684274844	38.1684274844	0	0	5	0.999186256695	-0.0236898065637	345	1	1.05	0.95	;
	180	1	356.987654215	35.6987654215	0	0	5	0.995844752912	-5.38121496991	154	1	1.1	0.9	;
	181	1	323.632308349	32.3632308349	0	0	5	0.998546862216	-0.558460102992	345	1	1.05	0.95	;
	182	1	584.262710522	58.4264044984	0	0	5	0.987489908673	-5.13435580221	345	1	1.05	0.95	;
	183	1	264.302805992	26.4303945992	0	0	5	0.992335874359	-3.6403374731	345	1	1.05	0.95	;
	184	1	522.213895837	52.2216364807	0	0	5	0.998826288233	-0.0852140318549	345	1	1.05	0.95	;
	185	1	298.438636804	29.8438636804	0	0	5	0.99742262244	-0.675566850058	154	1	1.1	0.9	;
	186	2	446.894529459	44.6899461125	0	0	5	1.00038340872	-0.104391609767	345	1	1.05	0.95	;
	187	1	61.7647543028	6.17647543028	0	0	5	1.00035707773	-0.112843219112	345	1	1.05	0.95	;
	188	1	56.409802941	5.6409802941	0	0	5	1.00352762883	-6.58894832502	154	1	1.1	0.9	;
	189	1	102.832894456	10.2970556029	0	0	5	0.998527021156	-0.292775162475	154	1	1.1	0.9	;
	190	3	184.725639282	18.4768498176	0	0	5	1	0	345	1	1.05	0.95	;
	191	1	257.156516497	25.7158909284	0	0	5	0.997300363963	-0.325397695828	154	1	1.1	0.9	;
	192	2	128.451249449	12.8452489023	0	0	5	1.00008764051	0.6231706904	154	1	1.1	0.9	;
	193	2	36.639813386	3.6639813386	0	0	5	1.00970789848	-5.03315081713	345	1	1.05	0.95	;
];

% generator data
%	bus	Pg	Qg	Qmax	Qmin	Vg	mBase	status	Pmax	Pmin	Pc1	Pc2	Qc1min	Qc1max	Qc2min	Qc2max	ramp_agc	ramp_10	ramp_30	ramp_q	apf
mpc.gen = [
	3	0	0	362.5	-362.5	1.01258495462	100	0	725	377	0	0	0	0	0	0	0	120.8333333	362.5	362.5	0	;
	3	0	0	362.5	-362.5	1.01258495462	100	0	725	377	0	0	0	0	0	0	0	120.8333333	362.5	362.5	0	;
	3	0	0	437.1	-437.1	1.01258495462	100	0	874.2	454.584	0	0	0	0	0	0	0	145.7	437.1	437.1	0	;
	4	0	0	262.15	-262.15	1.01315312531	100	0	524.3	272.636	0	0	0	0	0	0	0	87.38333333	262.15	262.15	0	;
	4	0	0	429.2	-429.2	1.01315312531	100	0	858.4	446.368	0	0	0	0	0	0	0	143.0666667	429.2	429.2	0	;
	4	0	0	429.2	-429.2	1.01315312531	100	0	858.4	446.368	0	0	0	0	0	0	0	143.0666667	429.2	429.2	0	;
	8	0	0	423.8	-423.8	1.01230041948	100	0	847.6	440.752	0	0	0	0	0	0	0	141.2666667	423.8	423.8	0	;
	8	0	0	423.8	-423.8	1.01230041948	100	0	847.6	440.752	0	0	0	0	0	0	0	141.2666667	423.8	423.8	0	;
	8	0	0	257.75	-257.75	1.01230041948	100	0	515.5	268.06	0	0	0	0	0	0	0	85.91666667	257.75	257.75	0	;
	9	0	0	57.705	-57.705	1.01499818587	100	0	115.41	60.0132	0	0	0	0	0	0	0	19.235	57.705	57.705	0	;
	9	0	0	18.5	-18.5	1.01499818587	100	0	37	19.24	0	0	0	0	0	0	0	6.166666667	18.5	18.5	0	;
	10	0	0	300	-300	1.01316123779	100	0	600	312	0	0	0	0	0	0	0	100	300	300	0	;
	10	289.182951779	44.9984090151	150	-150	1.01316123779	100	1	300	156	0	0	0	0	0	0	0	50	150	150	0	;
	19	0	0	184.5865	-184.5865	1.01498182811	100	0	369.173	191.96996	0	0	0	0	0	0	0	61.52883333	184.5865	184.5865	0	;
	19	0	0	184.5865	-184.5865	1.01498182811	100	0	369.173	191.96996	0	0	0	0	0	0	0	61.52883333	184.5865	184.5865	0	;
	20	350.272967327	44.3856378685	181.9055	-181.9055	1.01499046014	100	1	363.811	189.18172	0	0	0	0	0	0	0	60.63516667	181.9055	181.9055	0	;
	21	438.490455291	36.1173884947	225	-225	1.01488074846	100	1	450	234	0	0	0	0	0	0	0	75	225	225	0	;
	21	0	0	225	-225	1.01488074846	100	0	450	234	0	0	0	0	0	0	0	75	225	225	0	;
	21	0	0	225	-225	1.01488074846	100	0	450	234	0	0	0	0	0	0	0	75	225	225	0	;
	21	0	0	225	-225	1.01488074846	100	0	450	234	0	0	0	0	0	0	0	75	225	225	0	;
	24	0	0	10.5	-10.5	1.01496542993	100	0	21	10.92	0	0	0	0	0	0	0	3.5	10.5	10.5	0	;
	26	0	0	0	0	1.015839475	100	0	0	0	0	0	0	0	0	0	0	0	0	0	0	;
	27	0	0	63.5	-63.5	1.01715785883	100	0	127	66.04	0	0	0	0	0	0	0	21.16666667	63.5	63.5	0	;
	27	173.645199117	40.3729515954	93.65	-93.65	1.01715785883	100	1	187.3	97.396	0	0	0	0	0	0	0	31.21666667	93.65	93.65	0	;
	34	212.17631727	41.6428890876	112.5	-112.5	1.01648142879	100	1	225	117	0	0	0	0	0	0	0	37.5	112.5	112.5	0	;
	34	211.470660931	41.6428890876	112.5	-112.5	1.01648142879	100	1	225	117	0	0	0	0	0	0	0	37.5	112.5	112.5	0	;
	34	0	0	112.5	-112.5	1.01648142879	100	0	225	117	0	0	0	0	0	0	0	37.5	112.5	112.5	0	;
	34	212.17631727	41.6428890876	112.5	-112.5	1.01648142879	100	1	225	117	0	0	0	0	0	0	0	37.5	112.5	112.5	0	;
	34	0	0	112.5	-112.5	1.01648142879	100	0	225	117	0	0	0	0	0	0	0	37.5	112.5	112.5	0	;
	34	212.734435663	41.6428890876	112.5	-112.5	1.01648142879	100	1	225	117	0	0	0	0	0	0	0	37.5	112.5	112.5	0	;
	34	0	0	112.5	-112.5	1.01648142879	100	0	225	117	0	0	0	0	0	0	0	37.5	112.5	112.5	0	;
	34	211.722242466	41.6428890876	112.5	-112.5	1.01648142879	100	1	225	117	0	0	0	0	0	0	0	37.5	112.5	112.5	0	;
	34	0	0	251.7695	-251.7695	1.01648142879	100	0	503.539	261.84028	0	0	0	0	0	0	0	83.92316667	251.7695	251.7695	0	;
	34	0	0	254.454	-254.454	1.01648142879	100	0	508.908	264.63216	0	0	0	0	0	0	0	84.818	254.454	254.454	0	;
	34	0	0	225	-225	1.01648142879	100	0	450	234	0	0	0	0	0	0	0	75	225	225	0	;
	34	436.044024754	34.6203427087	225	-225	1.01648142879	100	1	450	234	0	0	0	0	0	0	0	75	225	225	0	;
	34	0	0	225	-225	1.01648142879	100	0	450	234	0	0	0	0	0	0	0	75	225	225	0	;
	34	560.295524559	32.8706741033	287.3	-287.3	1.01648142879	100	1	574.6	298.792	0	0	0	0	0	0	0	95.76666667	287.3	287.3	0	;
	34	560.295524559	32.8706741033	287.3	-287.3	1.01648142879	100	1	574.6	298.792	0	0	0	0	0	0	0	95.76666667	287.3	287.3	0	;
	34	0	0	187.8	-187.8	1.01648142879	100	0	375.6	195.312	0	0	0	0	0	0	0	62.6	187.8	187.8	0	;
	34	0	0	187.8	-187.8	1.01648142879	100	0	375.6	195.312	0	0	0	0	0	0	0	62.6	187.8	187.8	0	;
	34	0	0	187.8	-187.8	1.01648142879	100	0	375.6	195.312	0	0	0	0	0	0	0	62.6	187.8	187.8	0	;
	36	0	0	0	0	1.01461317566	100	0	0	0	0	0	0	0	0	0	0	0	0	0	0	;
	36	0	0	174.137	-174.137	1.01461317566	100	0	348.274	181.10248	0	0	0	0	0	0	0	58.04566667	174.137	174.137	0	;
	36	0	0	206.3	-206.3	1.01461317566	100	0	412.6	214.552	0	0	0	0	0	0	0	68.76666667	206.3	206.3	0	;
	36	0	0	73.157	-73.157	1.01461317566	100	0	146.314	76.08328	0	0	0	0	0	0	0	24.38566667	73.157	73.157	0	;
	37	0	0	12	-12	1.01479849393	100	0	24	12.48	0	0	0	0	0	0	0	4	12	12	0	;
	39	0	0	240.845	-240.845	1.00606793203	100	0	481.69	250.4788	0	0	0	0	0	0	0	80.28166667	240.845	240.845	0	;
	39	0	0	240.845	-240.845	1.00606793203	100	0	481.69	250.4788	0	0	0	0	0	0	0	80.28166667	240.845	240.845	0	;
	40	0	0	30	-30	1.01422489922	100	0	60	31.2	0	0	0	0	0	0	0	10	30	30	0	;
	40	0	0	375.6	-375.6	1.01422489922	100	0	751.2	390.624	0	0	0	0	0	0	0	125.2	375.6	375.6	0	;
	40	789.358040784	36.0868762452	400	-400	1.01422489922	100	1	800	320	0	0	0	0	0	0	0	88	264	400	0	;
	40	789.358040784	36.0868762452	400	-400	1.01422489922	100	1	800	320	0	0	0	0	0	0	0	88	264	400	0	;
	40	859.305965993	36.1343295426	435	-435	1.01422489922	100	1	870	348	0	0	0	0	0	0	0	95.7	287.1	435	0	;
	40	859.305965993	36.1343295426	435	-435	1.01422489922	100	1	870	348	0	0	0	0	0	0	0	95.7	287.1	435	0	;
	40	859.305965993	36.1343295426	435	-435	1.01422489922	100	1	870	348	0	0	0	0	0	0	0	95.7	287.1	435	0	;
	40	859.305965993	36.1343295426	435	-435	1.01422489922	100	1	870	348	0	0	0	0	0	0	0	95.7	287.1	435	0	;
	43	132.295502764	40.1212895811	72.394	-72.394	1.00920229683	100	1	144.788	75.28976	0	0	0	0	0	0	0	24.13133333	72.394	72.394	0	;
	43	0	0	0	0	1.00920229683	100	0	0	0	0	0	0	0	0	0	0	0	0	0	0	;
	45	0	0	255.9	-255.9	1.01150549115	100	0	511.8	266.136	0	0	0	0	0	0	0	85.3	255.9	255.9	0	;
	47	0	0	0	0	1.00698810366	100	0	0	0	0	0	0	0	0	0	0	0	0	0	0	;
	47	0	0	0	0	1.00698810366	100	0	0	0	0	0	0	0	0	0	0	0	0	0	0	;
	47	0	0	0	0	1.00698810366	100	0	0	0	0	0	0	0	0	0	0	0	0	0	0	;
	47	0	0	0	0	1.00698810366	100	0	0	0	0	0	0	0	0	0	0	0	0	0	0	;
	47	0	0	434.25	-434.25	1.00698810366	100	0	868.5	451.62	0	0	0	0	0	0	0	144.75	434.25	434.25	0	;
	47	0	0	431.65	-431.65	1.00698810366	100	0	863.3	448.916	0	0	0	0	0	0	0	143.8833333	431.65	431.65	0	;
	48	0	0	218.05	-218.05	1.01205189395	100	0	436.1	226.772	0	0	0	0	0	0	0	72.68333333	218.05	218.05	0	;
	48	0	0	189.19	-189.19	1.01205189395	100	0	378.38	196.7576	0	0	0	0	0	0	0	63.06333333	189.19	189.19	0	;
	48	367.990965385	43.4275967687	189.19	-189.19	1.01205189395	100	1	378.38	196.7576	0	0	0	0	0	0	0	63.06333333	189.19	189.19	0	;
	49	0	0	384.915	-384.915	1.00928308987	100	0	769.83	400.3116	0	0	0	0	0	0	0	128.305	384.915	384.915	0	;
	53	0	0	250.375	-250.375	1.02237199318	100	0	500.75	260.39	0	0	0	0	0	0	0	83.45833333	250.375	250.375	0	;
	53	0	0	266.5	-266.5	1.02237199318	100	0	533	277.16	0	0	0	0	0	0	0	88.83333333	266.5	266.5	0	;
	53	0	0	191	-191	1.02237199318	100	0	382	198.64	0	0	0	0	0	0	0	63.66666667	191	191	0	;
	53	0	0	423	-423	1.02237199318	100	0	846	439.92	0	0	0	0	0	0	0	141	423	423	0	;
	53	483.018651308	42.057735261	250	-250	1.02237199318	100	1	500	200	0	0	0	0	0	0	0	55	165	250	0	;
	53	483.018651308	42.057735261	250	-250	1.02237199318	100	1	500	200	0	0	0	0	0	0	0	55	165	250	0	;
	53	483.018651308	42.057735261	250	-250	1.02237199318	100	1	500	200	0	0	0	0	0	0	0	55	165	250	0	;
	53	483.018651308	42.057735261	250	-250	1.02237199318	100	1	500	200	0	0	0	0	0	0	0	55	165	250	0	;
	53	483.018651308	42.057735261	250	-250	1.02237199318	100	1	500	200	0	0	0	0	0	0	0	55	165	250	0	;
	53	483.018651308	42.057735261	250	-250	1.02237199318	100	1	500	200	0	0	0	0	0	0	0	55	165	250	0	;
	53	483.018651308	42.057735261	250	-250	1.02237199318	100	1	500	200	0	0	0	0	0	0	0	55	165	250	0	;
	53	483.018651308	42.057735261	250	-250	1.02237199318	100	1	500	200	0	0	0	0	0	0	0	55	165	250	0	;
	53	1004.58440966	35.0811390773	510	-510	1.02237199318	100	1	1020	408	0	0	0	0	0	0	0	112.2	336.6	510	0	;
	53	1004.58440966	35.0811390773	510	-510	1.02237199318	100	1	1020	408	0	0	0	0	0	0	0	112.2	336.6	510	0	;
	57	0	0	50.85	-50.85	1.01139386527	100	0	101.7	52.884	0	0	0	0	0	0	0	16.95	50.85	50.85	0	;
	58	0	0	0	0	1.02520177793	100	0	0	0	0	0	0	0	0	0	0	0	0	0	0	;
	59	0	0	173.165	-173.165	1.0292547236	100	0	346.33	180.0916	0	0	0	0	0	0	0	57.72166667	173.165	173.165	0	;
	59	0	0	0	0	1.0292547236	100	0	0	0	0	0	0	0	0	0	0	0	0	0	0	;
	59	0	0	0	0	1.0292547236	100	0	0	0	0	0	0	0	0	0	0	0	0	0	0	;
	59	0	0	0	0	1.0292547236	100	0	0	0	0	0	0	0	0	0	0	0	0	0	0	;
	59	480.508990139	43.9836726011	250	-250	1.0292547236	100	1	500	200	0	0	0	0	0	0	0	55	165	250	0	;
	59	480.508990139	43.9836726011	250	-250	1.0292547236	100	1	500	200	0	0	0	0	0	0	0	55	165	250	0	;
	59	480.508990139	43.9836726011	250	-250	1.0292547236	100	1	500	200	0	0	0	0	0	0	0	55	165	250	0	;
	59	480.508990139	43.9836726011	250	-250	1.0292547236	100	1	500	200	0	0	0	0	0	0	0	55	165	250	0	;
	59	480.508990139	43.9836726011	250	-250	1.0292547236	100	1	500	200	0	0	0	0	0	0	0	55	165	250	0	;
	59	1032.10640492	40.5795592973	525	-525	1.0292547236	100	1	1050	420	0	0	0	0	0	0	0	115.5	346.5	525	0	;
	59	1032.10640492	40.5795592973	525	-525	1.0292547236	100	1	1050	420	0	0	0	0	0	0	0	115.5	346.5	525	0	;
	62	0	0	0	0	1.01253607818	100	0	0	0	0	0	0	0	0	0	0	0	0	0	0	;
	64	0	0	265.2205	-265.2205	1.0074203683	100	0	530.441	275.82932	0	0	0	0	0	0	0	88.40683333	265.2205	265.2205	0	;
	70	0	0	215.6	-215.6	1.01526534233	100	0	431.2	224.224	0	0	0	0	0	0	0	71.86666667	215.6	215.6	0	;
	71	1035.36317276	-0.996914679979	520	-520	1.0249186194	100	1	1040	416	0	0	0	0	0	0	0	114.4	343.2	520	0	;
	73	195.214974027	35.4834414449	100	-100	1.02583446231	100	1	200	80	0	0	0	0	0	0	0	22	66	100	0	;
	73	195.214974027	35.4834414449	100	-100	1.02583446231	100	1	200	80	0	0	0	0	0	0	0	22	66	100	0	;
	73	589.263065114	12.8229673421	297.5	-297.5	1.02583446231	100	1	595	238	0	0	0	0	0	0	0	65.45	196.35	297.5	0	;
	73	589.263065114	12.8229673421	297.5	-297.5	1.02583446231	100	1	595	238	0	0	0	0	0	0	0	65.45	196.35	297.5	0	;
	79	0	0	424	-424	1.0054340971	100	0	848	440.96	0	0	0	0	0	0	0	141.3333333	424	424	0	;
	75	747.664908109	40.4484640127	511	-511	1.03029871112	100	1	1022	408.8	0	0	0	0	0	0	0	112.42	337.26	511	0	;
	75	747.664908109	40.4484640127	511	-511	1.03029871112	100	1	1022	408.8	0	0	0	0	0	0	0	112.42	337.26	511	0	;
	82	927.30146257	67.7751705983	475	-475	1.02254507073	100	1	950	902.5	0	0	0	0	0	0	0	28.5	85.5	475	0	;
	82	927.30146257	67.7751705983	475	-475	1.02254507073	100	1	950	902.5	0	0	0	0	0	0	0	28.5	85.5	475	0	;
	82	976.291611558	68.503600747	500	-500	1.02254507073	100	1	1000	950	0	0	0	0	0	0	0	30	90	500	0	;
	82	976.291611558	68.503600747	500	-500	1.02254507073	100	1	1000	950	0	0	0	0	0	0	0	30	90	500	0	;
	82	976.291611558	68.503600747	500	-500	1.02254507073	100	1	1000	950	0	0	0	0	0	0	0	30	90	500	0	;
	82	976.291611558	68.503600747	500	-500	1.02254507073	100	1	1000	950	0	0	0	0	0	0	0	30	90	500	0	;
	82	1369.30135815	76.9239278117	700	-700	1.02254507073	100	1	1400	1330	0	0	0	0	0	0	0	42	126	700	0	;
	87	0	0	180.8	-180.8	1.00400550764	100	0	361.6	188.032	0	0	0	0	0	0	0	60.26666667	180.8	180.8	0	;
	98	0	0	44	-44	1.00153946067	100	0	88	45.76	0	0	0	0	0	0	0	14.66666667	44	44	0	;
	99	0	0	24.15	-24.15	0.999225204326	100	0	48.3	25.116	0	0	0	0	0	0	0	8.05	24.15	24.15	0	;
	100	0	0	225	-225	1.02189901424	100	0	450	234	0	0	0	0	0	0	0	75	225	225	0	;
	100	0	0	225	-225	1.02189901424	100	0	450	234	0	0	0	0	0	0	0	75	225	225	0	;
	100	0	0	225	-225	1.02189901424	100	0	450	234	0	0	0	0	0	0	0	75	225	225	0	;
	100	530.098149628	43.2432228929	275	-275	1.02189901424	100	1	550	220	0	0	0	0	0	0	0	60.5	181.5	275	0	;
	100	479.763949482	43.6627500482	250	-250	1.02189901424	100	1	500	200	0	0	0	0	0	0	0	55	165	250	0	;
	100	0	0	0	0	1.02189901424	100	0	0	0	0	0	0	0	0	0	0	0	0	0	0	;
	100	0	0	0	0	1.02189901424	100	0	0	0	0	0	0	0	0	0	0	0	0	0	0	;
	100	479.763949482	43.6627500482	250	-250	1.02189901424	100	1	500	200	0	0	0	0	0	0	0	55	165	250	0	;
	100	479.763949482	43.6627500482	250	-250	1.02189901424	100	1	500	200	0	0	0	0	0	0	0	55	165	250	0	;
	100	1000.36556157	42.8051970166	509.515	-509.515	1.02189901424	100	1	1019.03	407.612	0	0	0	0	0	0	0	112.0933	336.2799	509.515	0	;
	100	1000.36556157	42.8051970166	509.515	-509.515	1.02189901424	100	1	1019.03	407.612	0	0	0	0	0	0	0	112.0933	336.2799	509.515	0	;
	106	983.124820969	45.5147417701	509	-509	1.00758144414	100	1	1018	407.2	0	0	0	0	0	0	0	111.98	335.94	509	0	;
	108	0	0	359.2	-359.2	1.0054115811	100	0	718.4	373.568	0	0	0	0	0	0	0	119.7333333	359.2	359.2	0	;
	124	935.13917467	49.1488353153	475	-475	1.01667678227	100	1	950	902.5	0	0	0	0	0	0	0	28.5	85.5	475	0	;
	124	935.13917467	49.1488353153	475	-475	1.01667678227	100	1	950	902.5	0	0	0	0	0	0	0	28.5	85.5	475	0	;
	124	984.640372515	49.3108280146	500	-500	1.01667678227	100	1	1000	950	0	0	0	0	0	0	0	30	90	500	0	;
	124	984.640372515	49.3108280146	500	-500	1.01667678227	100	1	1000	950	0	0	0	0	0	0	0	30	90	500	0	;
	124	984.640372515	49.3108280146	500	-500	1.01667678227	100	1	1000	950	0	0	0	0	0	0	0	30	90	500	0	;
	124	984.640372515	49.3108280146	500	-500	1.01667678227	100	1	1000	950	0	0	0	0	0	0	0	30	90	500	0	;
	128	0	0	57.623	-57.623	0.993723742353	100	0	115.246	59.92792	0	0	0	0	0	0	0	19.20766667	57.623	57.623	0	;
	134	0	0	262.75	-262.75	1.00399911772	100	0	525.5	273.26	0	0	0	0	0	0	0	87.58333333	262.75	262.75	0	;
	134	0	0	432.1	-432.1	1.00399911772	100	0	864.2	449.384	0	0	0	0	0	0	0	144.0333333	432.1	432.1	0	;
	134	0	0	247.3	-247.3	1.00399911772	100	0	494.6	257.192	0	0	0	0	0	0	0	82.43333333	247.3	247.3	0	;
	134	0	0	247.3	-247.3	1.00399911772	100	0	494.6	257.192	0	0	0	0	0	0	0	82.43333333	247.3	247.3	0	;
	137	315.471122949	36.9755002964	170	-170	1.00212799474	100	1	340	136	0	0	0	0	0	0	0	37.4	112.2	170	0	;
	137	305.588048344	36.5993890888	164.3	-164.3	1.00212799474	100	1	328.6	131.44	0	0	0	0	0	0	0	36.146	108.438	164.3	0	;
	156	0	0	185.35	-185.35	0.985798676832	100	0	370.7	192.764	0	0	0	0	0	0	0	61.78333333	185.35	185.35	0	;
	160	0	0	0	0	0.990697024469	100	0	0	0	0	0	0	0	0	0	0	0	0	0	0	;
	166	688.241714077	58.5032965916	350	-350	0.994780877947	100	1	700	665	0	0	0	0	0	0	0	21	63	350	0	;
	166	688.241714077	58.5032965916	350	-350	0.994780877947	100	1	700	665	0	0	0	0	0	0	0	21	63	350	0	;
	166	688.241714077	58.5032965916	350	-350	0.994780877947	100	1	700	665	0	0	0	0	0	0	0	21	63	350	0	;
	166	985.181772548	60.7356580466	500	-500	0.994780877947	100	1	1000	950	0	0	0	0	0	0	0	30	90	500	0	;
	166	985.181772548	60.7356580466	500	-500	0.994780877947	100	1	1000	950	0	0	0	0	0	0	0	30	90	500	0	;
	167	0	0	150	-150	0.99413894874	100	0	300	156	0	0	0	0	0	0	0	50	150	150	0	;
	167	0	0	225	-225	0.99413894874	100	0	450	234	0	0	0	0	0	0	0	75	225	225	0	;
	167	0	0	225	-225	0.99413894874	100	0	450	234	0	0	0	0	0	0	0	75	225	225	0	;
	167	0	0	435.95	-435.95	0.99413894874	100	0	871.9	453.388	0	0	0	0	0	0	0	145.3166667	435.95	435.95	0	;
	167	0	0	221.4	-221.4	0.99413894874	100	0	442.8	230.256	0	0	0	0	0	0	0	73.8	221.4	221.4	0	;
	172	0	0	22.918	-22.918	0.991185737634	100	0	45.836	23.83472	0	0	0	0	0	0	0	7.639333333	22.918	22.918	0	;
	175	638.266682306	52.1010467845	325	-325	1.00346025565	100	1	650	617.5	0	0	0	0	0	0	0	19.5	58.5	325	0	;
	175	934.612613201	54.1079006488	475	-475	1.00346025565	100	1	950	902.5	0	0	0	0	0	0	0	28.5	85.5	475	0	;
	175	934.612613201	54.1079006488	475	-475	1.00346025565	100	1	950	902.5	0	0	0	0	0	0	0	28.5	85.5	475	0	;
	175	984.072021793	54.3082221494	500	-500	1.00346025565	100	1	1000	950	0	0	0	0	0	0	0	30	90	500	0	;
	175	984.072021793	54.3082221494	500	-500	1.00346025565	100	1	1000	950	0	0	0	0	0	0	0	30	90	500	0	;
	175	1380.2631613	55.4482921376	700	-700	1.00346025565	100	1	1400	1330	0	0	0	0	0	0	0	42	126	700	0	;
	175	1380.2631613	55.4482921376	700	-700	1.00346025565	100	1	1400	1330	0	0	0	0	0	0	0	42	126	700	0	;
	180	0	0	13.15	-13.15	0.995844752912	100	0	26.3	13.676	0	0	0	0	0	0	0	4.383333333	13.15	13.15	0	;
	186	0	0	225	-225	1.00038340872	100	0	450	234	0	0	0	0	0	0	0	75	225	225	0	;
	186	406.980970282	46.9722719178	225	-225	1.00038340872	100	1	450	234	0	0	0	0	0	0	0	75	225	225	0	;
	186	389.14272586	46.9722719178	225	-225	1.00038340872	100	1	450	234	0	0	0	0	0	0	0	75	225	225	0	;
	186	406.980970282	46.9722719178	225	-225	1.00038340872	100	1	450	234	0	0	0	0	0	0	0	75	225	225	0	;
	190	0	0	0	0	1	100	0	0	0	0	0	0	0	0	0	0	0	0	0	0	;
	190	0	0	0	0	1	100	0	0	0	0	0	0	0	0	0	0	0	0	0	0	;
	190	0	0	0	0	1	100	0	0	0	0	0	0	0	0	0	0	0	0	0	0	;
	190	454.878524847	3.64585406604	250	-250	1	100	1	500	200	0	0	0	0	0	0	0	55	165	250	0	;
	190	960.780896349	2.50539330686	520	-520	1	100	1	1040	416	0	0	0	0	0	0	0	114.4	343.2	520	0	;
	190	960.780896349	2.50539330686	520	-520	1	100	1	1040	416	0	0	0	0	0	0	0	114.4	343.2	520	0	;
	193	0	0	0	0	1.00970789848	100	0	0	0	0	0	0	0	0	0	0	0	0	0	0	;
	193	0	0	0	0	1.00970789848	100	0	0	0	0	0	0	0	0	0	0	0	0	0	0	;
	193	0	0	0	0	1.00970789848	100	0	0	0	0	0	0	0	0	0	0	0	0	0	0	;
	193	0	0	0	0	1.00970789848	100	0	0	0	0	0	0	0	0	0	0	0	0	0	0	;
	193	472.480452108	38.9952673244	250	-250	1.00970789848	100	1	500	200	0	0	0	0	0	0	0	55	165	250	0	;
	193	472.480452108	38.9952673244	250	-250	1.00970789848	100	1	500	200	0	0	0	0	0	0	0	55	165	250	0	;
	193	472.480452108	38.9952673244	250	-250	1.00970789848	100	1	500	200	0	0	0	0	0	0	0	55	165	250	0	;
	193	472.480452108	38.9952673244	250	-250	1.00970789848	100	1	500	200	0	0	0	0	0	0	0	55	165	250	0	;
	71	1035.36317276	-0.996914679979	520	-520	1.0249186194	100	1	1040	416	0	0	0	0	0	0	0	114.4	343.2	520	0	;
	60	0	0	247.5	-247.5	1.01594449088	100	0	495	257.4	0	0	0	0	0	0	0	82.5	247.5	247.5	0	;
	42	909.698261575	37.926980507	512.7	-512.7	1.0044499095	100	1	1025.4	533.208	0	0	0	0	0	0	0	170.9	512.7	512.7	0	;
	11	0	0	0	0	1.01308031135	100	0	0	0	0	0	0	0	0	0	0	0	0	0	0	;
	172	0	0	59.486	-59.486	0.991185737634	100	0	118.972	61.86544	0	0	0	0	0	0	0	19.8286666667	59.486	59.486	0	;
	82	1369.30135815	76.9239278117	700	-700	1.02254507073	100	1	1400	1330	0	0	0	0	0	0	0	42	126	700	0	;
	75	779.351224275	40.2073397253	525	-525	1.03029871112	100	1	1050	420	0	0	0	0	0	0	0	115.5	346.5	525	0	;
	64	0	0	298.5855	-298.5855	1.0074203683	100	0	597.171	310.52892	0	0	0	0	0	0	0	99.5285	298.5855	298.5855	0	;
	160	0	0	135	-135	0.990697024469	100	0	270	140.4	0	0	0	0	0	0	0	45	135	135	0	;
	192	775.851911765	12.7305210009	506	-506	1.00008764051	100	1	1012	526.24	0	0	0	0	0	0	0	168.666666667	506	506	0	;
	167	831.886000281	59.749209993	552.3	-552.3	0.99413894874	100	1	1104.6	574.392	0	0	0	0	0	0	0	184.1	552.3	552.3	0	;
	75	546.691648927	40.2073397253	525	-525	1.03029871112	100	1	1050	546	0	0	0	0	0	0	0	175	525	525	0	;
	62	0	0	135	-135	1.01253607818	100	0	270	140.4	0	0	0	0	0	0	0	45	135	135	0	;
	52	537.569554541	37.4291966163	280.5	-280.5	1.00803321681	100	1	561	291.72	0	0	0	0	0	0	0	93.5	280.5	280.5	0	;
	11	0	0	247.73	-247.73	1.01308031135	100	0	495.46	257.6392	0	0	0	0	0	0	0	82.5766666667	247.73	247.73	0	;
	24	0	0	142.5	-142.5	1.01496542993	100	0	285	148.2	0	0	0	0	0	0	0	47.5	142.5	142.5	0	;
	26	0	0	249	-249	1.015839475	100	0	498	258.96	0	0	0	0	0	0	0	83	249	249	0	;
...
];

% branch data
%	fbus	tbus	r	x	b	rateA	rateB	rateC	ratio	angle	status	angmin	angmax	Pf	Qf	Pt	Qt
mpc.branch = [
	1	2	0.001953667	0.017794207	0.057753945	904	904	904	0	0	1	-30	30	184.420989586	-27.7189741309	-183.759505255	27.8300387133	;
	1	3	0.002346024	0.021367842	0.069352749	904	904	904	0	0	1	-30	30	149.165376228	-23.8663005224	-148.645451861	21.5002890757	;
	1	66	0.002789894	0.025410654	0.082474341	904	904	904	0	0	1	-30	30	-398.810046451	45.0629066278	403.215463684	-13.402916776	;
	2	3	0.000230027	0.002463512	0.207508013	2172	2172	2172	0	0	1	-30	30	-38.3373972349	-7.3709227963	38.3407185543	-13.8697216348	;
	2	4	0.001097043	0.009991982	0.032430577	904	904	904	0	0	1	-30	30	75.8204816124	-15.5350346096	-75.7569132394	12.7869832545	;
	2	6	0.004587512	0.041783555	0.135615211	904	904	904	0	0	1	-30	30	67.445198827	-12.8072035113	-67.2401375343	0.773561973082	;
	3	4	0.000157872	0.001690763	0.142417379	2172	2172	2172	0	0	1	-30	30	506.032214979	-86.4062098174	-505.628305692	76.1213076508	;
	3	7	0.001539844	0.014025061	0.04552058	904	904	904	0	0	1	-30	30	72.8144068308	-20.0682540364	-72.7300586114	16.1626860734	;
	3	28	0.000668777	0.007162388	0.603306441	2172	2172	2172	0	0	1	-30	30	-830.092511659	62.6888340257	834.64407427	-75.8383937848	;
	4	7	0.001330617	0.012119404	0.039335464	904	904	904	0	0	1	-30	30	13.9091649137	-10.5032087395	-13.9057239169	6.49352170135	;
	4	8	0.000413018	0.004423289	0.372585094	2172	2172	2172	0	0	1	-30	30	411.949875327	-34.3714288379	-411.26611764	3.48134008989	;
	5	16	0.00309813	0.028218105	0.091586372	904	904	904	0	0	1	-30	30	651.55497404	16.7945301382	-639.04201671	87.6293465537	;
	5	20	0.003233724	0.029453105	0.095594761	904	904	904	0	0	1	-30	30	596.286915642	17.3598184491	-585.344682934	72.3496125451	;
	5	66	0.002753227	0.025076687	0.081390398	904	904	904	0	0	1	-30	30	126.350333425	27.9710804779	-125.905404114	-32.3929738536	;
	5	70	0.001710666	0.015580931	0.050570403	904	904	904	0	0	1	-30	30	189.031962079	48.4123315861	-188.408636061	-48.0019558899	;
	6	8	0.001796592	0.016363559	0.053110546	904	904	904	0	0	1	-30	30	-14.8034751622	-0.912348507326	14.8073743377	-4.49479600469	;
	6	11	0.001545809	0.014079394	0.045696926	904	904	904	0	0	1	-30	30	1.47523974636	-7.91805076376	-1.4747378447	3.23608681682	;
	7	9	0.000740338	0.006743076	0.021885732	904	904	904	0	0	1	-30	30	105.346887301	-27.5145893861	-105.261961405	26.0356338997	;
	7	14	0.000255269	0.002733843	0.230278712	2172	2172	2172	0	0	1	-30	30	291.973351238	-73.5111751944	-291.752257225	52.1800474977	;
	7	28	0.000583767	0.00625196	0.526618746	2172	2172	2172	0	0	1	-30	30	-1115.22251284	128.961218996	1122.42226138	-105.956678192	;
	8	10	0.000160584	0.000184873	0.901984702	1416	1416	1416	0	0	1	-30	30	-622.881289493	23.8974594711	623.496979461	-115.698352098	;
	8	11	0.000158062	0.001692798	0.142588761	2172	2172	2172	0	0	1	-30	30	156.787124683	-68.3655868654	-156.743457419	54.2101752558	;
	8	14	0.000269282	0.002883925	0.242920462	2172	2172	2172	0	0	1	-30	30	-297.0021137	-76.40364142	297.24465948	54.0427517257	;
	9	12	0.000119405	0.000137466	0.167672111	708	708	708	0	0	1	-30	30	175.611936439	-79.3871915463	-175.570391097	62.1629668625	;
	9	13	0.000176983	0.000203752	0.248523638	708	708	708	0	0	1	-30	30	-35.8813785135	-46.3703377146	35.8855261134	20.7683994185	;
	9	15	0.000297907	0.000342968	0.41832935	708	708	708	0	0	1	-30	30	-347.226344767	76.1498005936	347.602584414	-118.843142713	;
	10	14	0.00105221	0.00958364	0.031105236	904	904	904	0	0	1	-30	30	-75.5600469568	-11.9147575587	75.6196617226	9.25916524671	;
	10	24	0.000243464	0.000280289	1.367512381	1416	1416	1416	0	0	1	-30	30	-948.967868369	103.590130081	951.175391933	-241.673461194	;
	11	21	0.00015784	0.00169041	0.142387631	2172	2172	2172	0	0	1	-30	30	-288.891673694	-87.5830643057	289.0299354	74.4241091914	;
	11	25	0.00110679	0.010080759	0.032718716	904	904	904	0	0	1	-30	30	-67.7185528744	-10.7881695809	67.7689007101	7.88318405217	;
	12	14	0.000665432	0.00606083	0.019671394	904	904	904	0	0	1	-30	30	8.30229789847	-2.9093126017	-8.30182935607	0.887315646884	;
	12	18	0.000258897	0.000298056	0.363549377	708	708	708	0	0	1	-30	30	-146.425794415	-90.6230430202	146.492680975	53.2330051315	;
	13	16	0.000661549	0.006025463	0.019556605	904	904	904	0	0	1	-30	30	-35.8594761017	-11.5014447897	35.8684382585	9.56608868087	;
	13	17	0.000189196	0.000217813	0.265674267	708	708	708	0	0	1	-30	30	-264.588906532	-31.1407391424	264.717998384	3.89770170182	;
	13	22	0.000821755	0.00748463	0.024292563	904	904	904	0	0	1	-30	30	-32.6142077783	-5.3046561459	32.6228210859	2.8783993397	;
	14	18	9.94e-05	0.000114489	0.558582953	1416	1416	1416	0	0	1	-30	30	-612.319477656	36.9869525646	612.685439867	-94.135787812	;
	14	19	2.7e-05	6.2e-05	1.344867636	1906	1906	1906	0	0	1	-30	30	2.92296286752	-128.538082957	-2.9220398791	-10.0016266158	;
	14	23	0.000322118	0.000370841	0.45232683	708	708	708	0	0	1	-30	30	173.991498586	-61.0776279296	-173.892371285	14.6158267253	;
	15	16	0.000110729	0.000127478	0.155489196	708	708	708	0	0	1	-30	30	-396.147840004	98.3487559042	396.328428101	-114.186184446	;
	16	17	1.61e-05	3.7e-05	7.216516162	5718	5718	5718	0	0	1	-30	30	3849.74677874	-1143.98097912	-3847.34232795	404.837289505	;
	16	20	0.000640865	0.005837068	0.018945138	904	904	904	0	0	1	-30	30	-136.019808237	31.8498885747	136.141365782	-32.6963848608	;
	16	22	3.29e-05	7.57e-05	1.640782241	1906	1906	1906	0	0	1	-30	30	-208.808104853	399.4312936	208.896700829	-568.544927548	;
	16	28	0.000193401	0.002071259	0.697869898	4344	4344	4344	0	0	1	-30	30	-3610.35280636	574.053798459	3635.47218283	-376.871547447	;
	17	18	8.5e-06	1.95e-05	1.693948976	3812	3812	3812	0	0	1	-30	30	3084.34728487	-458.562695705	-3083.55205132	285.677674177	;
	18	19	3.3e-05	3.8e-05	0.742	2832	2832	2832	0	0	1	-30	30	1825.64654563	-312.518850404	-1824.55585	237.29790645	;
	18	30	0.000754369	0.006870878	0.022300533	904	904	904	0	0	1	-30	30	-21.4945275307	15.7217671699	21.4999898014	-17.9693912669	;
	19	23	4.24e-05	4.88e-05	0.952412124	2832	2832	2832	0	0	1	-30	30	1337.72337321	-276.271731827	-1336.96560962	179.070934478	;
	20	22	0.000644357	0.005868869	0.019048354	904	904	904	0	0	1	-30	30	130.571940887	-26.9733359978	-130.461079667	26.0193388726	;
	21	25	0.000588113	0.0053566	0.017385701	904	904	904	0	0	1	-30	30	-36.1206357	5.61569426109	36.1283275119	-7.33610016094	;
	21	34	9.49e-05	0.001016882	0.085654572	2172	2172	2172	0	0	1	-30	30	-529.742353374	-113.395700487	530.011859647	107.447340848	;
	22	29	0.000157753	0.000181614	0.886083495	1416	1416	1416	0	0	1	-30	30	580.061796031	92.8446011143	-579.517924036	-183.526543613	;
	22	36	0.000114952	0.001231098	0.103698609	2172	2172	2172	0	0	1	-30	30	28.5159753789	81.1418751292	-28.5067338088	-91.7294247298	;
	22	38	0.000222736	0.002385427	0.200930653	2172	2172	2172	0	0	1	-30	30	-752.159979201	210.629871681	753.486901373	-217.078844857	;
	22	46	0.000425686	0.004558955	0.384012537	2172	2172	2172	0	0	1	-30	30	-385.224764234	101.52320397	385.897848405	-133.787651529	;
	23	24	5.52e-05	0.000503	0.0147	2712	2712	2712	0	0	1	-30	30	636.664850957	-156.897901867	-636.434391258	157.484242299	;
	23	32	2.02e-05	4.64e-05	1.00675716	1906	1906	1906	0	0	1	-30	30	326.110463048	-58.4658571184	-326.089583087	-45.1029825716	;
	23	33	0.000169968	0.000195677	0.238673524	708	708	708	0	0	1	-30	30	172.511906773	-22.9825581089	-172.462573404	-1.52024870154	;
	24	26	0.000118	0.000136	0.664	1416	1416	1416	0	0	1	-30	30	-853.864750129	54.9258072799	854.708986118	-122.414000339	;
	25	26	0.00041452	0.003775492	0.012253963	904	904	904	0	0	1	-30	30	-46.3026269416	-24.8409418495	46.3136170231	23.6778752773	;
	25	34	0.000619848	0.00564564	0.018323828	904	904	904	0	0	1	-30	30	-61.2392668463	-25.2777709136	61.2654064657	23.6257975666	;
	26	32	0.000607908	0.005536893	0.01797087	904	904	904	0	0	1	-30	30	-30.6895453569	27.5866042068	30.6998833654	-29.3444149928	;
	26	34	4.5e-05	0.000103577	2.245327702	1906	1906	1906	0	0	1	-30	30	-1577.38927805	-58.8532145388	1578.47572067	-170.49464283	;
	27	34	9.33e-05	0.000999417	0.336734	4344	4344	4344	0	0	1	-30	30	153.899994605	37.1641020183	-153.87594879	-71.7222057563	;
	28	38	0.001685665	0.015353221	0.049831335	904	904	904	0	0	1	-30	30	368.702483717	-26.9753120337	-366.460424503	42.2852178524	;
	28	41	0.002015591	0.018358223	0.059584548	904	904	904	0	0	1	-30	30	-166.766921013	58.087326088	167.38639744	-58.5179401669	;
	28	50	9.99e-05	0.00321	1.63	7290	7290	7290	0	0	1	-30	30	828.753229642	-74.3641420583	-828.084741474	-71.3549661056	;
	28	80	0.000122152	0.003924627	7.991861101	14580	14580	14580	0	0	1	-30	30	-6688.09672027	620.586098828	6742.58765446	308.07600248	;
	29	30	8.04e-06	9.26e-06	0.04515506	1416	1416	1416	0	0	1	-30	30	638.758136536	33.5155380417	-638.726165918	-38.1262905081	;
	29	36	3.7e-05	8.52e-05	1.846241882	1906	1906	1906	0	0	1	-30	30	-604.776990206	87.1338778416	604.92039378	-276.850475737	;
	30	31	0.00033011	0.003006676	0.009758648	904	904	904	0	0	1	-30	30	134.642109898	7.83727515865	-134.583740321	-8.3093217736	;
	31	33	0.000235829	0.000271499	0.331156608	708	708	708	0	0	1	-30	30	-195.026846161	-15.67370088	195.114121206	-18.2778410704	;
	31	36	0.00107165	0.0097607	0.031679912	904	904	904	0	0	1	-30	30	-48.059348957	-4.54415429456	48.0835195979	1.50561424177	;
	32	33	6.05e-05	6.97e-05	0.1912274	1062	1062	1062	0	0	1	-30	30	314.949933581	17.2821887969	-314.891188935	-36.890687553	;
	32	37	0.000239942	0.002569698	0.216452349	2172	2172	2172	0	0	1	-30	30	-146.164676514	-10.1662399764	146.214488215	-11.5837020542	;
	32	44	0.000338016	0.003620039	0.304925228	2172	2172	2172	0	0	1	-30	30	-369.012402053	89.7828405897	369.496179666	-115.907636213	;
	34	37	6.47e-05	0.000692975	0.058371101	2172	2172	2172	0	0	1	-30	30	-546.76141364	296.00159267	547.004599931	-299.418051056	;
	35	37	0.000950447	0.008656772	0.028096937	904	904	904	0	0	1	-30	30	-17.9767412978	-23.8148275872	17.9843753135	20.9968221586	;
	35	40	0.001104834	0.01006295	0.032660912	904	904	904	0	0	1	-30	30	-234.533611049	11.6220753436	235.128074675	-9.56231337288	;
	36	38	0.000952048	0.00867136	0.028144286	904	904	904	0	0	1	-30	30	-209.563477057	50.3979244152	209.994489286	-49.3629486475	;
	36	43	0.001604892	0.014617531	0.047443535	904	904	904	0	0	1	-30	30	76.9742066229	27.0521996323	-76.8682738705	-30.9454025617	;
	36	44	0.000327256	0.003504805	0.295218756	2172	2172	2172	0	0	1	-30	30	-270.151110267	86.2387445114	270.415824895	-113.717360677	;
	36	46	0.000315296	0.00337672	0.284429868	2172	2172	2172	0	0	1	-30	30	-529.896956007	117.626162167	530.810541351	-137.04752534	;
	37	40	0.000119	0.00127	0.429	4344	4344	4344	0	0	1	-30	30	-1746.40155931	206.666881105	1749.98635026	-212.563169499	;
	38	42	0.001675214	0.015258027	0.049522368	904	904	904	0	0	1	-30	30	-181.933874674	72.3377160931	182.566605827	-71.6104222828	;
	38	45	0.001624604	0.014797065	0.048026242	904	904	904	0	0	1	-30	30	-17.7931275609	5.06074539584	17.7990434712	-9.92457323621	;
	38	46	0.001525585	0.013895192	0.045099066	904	904	904	0	0	1	-30	30	2.71806843537	-0.445988829125	-2.71790668081	-4.17285877541	;
	38	84	0.000977268	0.010466224	0.881597169	2172	2172	2172	0	0	1	-30	30	-764.184248811	110.786882115	769.985212333	-138.51350073	;
	39	44	0.000549539	0.00500526	0.064981493	1808	1808	1808	0	0	1	-30	30	-603.780060153	-47.9543143554	605.770145318	59.4639020756	;
	40	44	0.000186834	0.002000932	0.16854368	2172	2172	2172	0	0	1	-30	30	626.345942721	48.025675042	-625.627553758	-57.6317076646	;
	40	47	0.000177428	0.001900194	0.160058219	2172	2172	2172	0	0	1	-30	30	869.215522558	303.434732231	-867.74478367	-304.030978726	;
	41	42	0.001299581	0.011836722	0.038417974	904	904	904	0	0	1	-30	30	494.685959562	-29.29342812	-491.533378154	54.125756421	;
	41	52	0.003101751	0.028251087	0.091693421	904	904	904	0	0	1	-30	30	47.3862311597	-17.0564606722	-47.3126727093	8.4287542528	;
	41	77	0.002217352	0.020195883	0.065548969	904	904	904	0	0	1	-30	30	-147.537680467	16.0326346603	148.022885054	-18.2447854063	;
	42	46	0.00172419	0.015704108	0.050970195	904	904	904	0	0	1	-30	30	179.719341461	-68.0156537907	-179.094174309	68.5283638539	;
	42	84	0.004178797	0.038060939	0.123532864	904	904	904	0	0	1	-30	30	-135.48143603	5.98458760946	136.247863526	-11.4964636891	;
	43	44	0.000449352	0.004092749	0.013283673	904	904	904	0	0	1	-30	30	-501.877739388	-10.1942503659	502.989425677	18.9628956271	;
	44	48	0.001280818	0.011665829	0.037863315	904	904	904	0	0	1	-30	30	-148.970970917	15.4954220265	149.252300041	-16.81109597	;
	44	57	0.000681396	0.007297531	0.614689901	2172	2172	2172	0	0	1	-30	30	-1194.21791809	141.125529526	1203.90430032	-100.304572999	;
	45	46	0.000111099	0.001189836	0.100222927	2172	2172	2172	0	0	1	-30	30	254.551645286	-72.1406239598	-254.476408955	62.6869342349	;
	45	50	0.00040114	0.004296079	0.361869864	2172	2172	2172	0	0	1	-30	30	-639.182842451	28.4965458786	640.793311628	-48.3066461715	;
	46	48	0.001260894	0.011484355	0.037274311	904	904	904	0	0	1	-30	30	-78.401738453	6.76084649854	78.4783388555	-9.88085498969	;
	46	50	0.000334595	0.003583402	0.301839233	2172	2172	2172	0	0	1	-30	30	-851.016321028	65.7724707063	853.403894996	-71.1282141339	;
	47	49	0.001906713	0.017366547	0.056365905	904	904	904	0	0	1	-30	30	-181.61022914	6.62525560175	182.232099399	-6.68987947573	;
	47	60	0.000752607	0.008060181	0.67892992	2172	2172	2172	0	0	1	-30	30	-1534.29610326	91.4566006549	1551.88552031	27.4602052311	;
	48	49	0.001480551	0.013485018	0.043767781	904	904	904	0	0	1	-30	30	-76.3218883271	27.3359352357	76.4187346333	-30.9245116817	;
	48	51	0.001270961	0.011576049	0.037571917	904	904	904	0	0	1	-30	30	-95.2072101868	28.6469107173	95.3312849179	-31.3566234371	;
	49	51	0.000899122	0.008189302	0.0598043	1356	1356	1356	0	0	1	-30	30	-8.82209374416	-8.61398515124	8.82305435812	2.52755192169	;
	49	53	0.002230934	0.020319589	0.065950477	904	904	904	0	0	1	-30	30	-613.335781834	36.6792259747	621.609564504	31.8735354744	;
	50	51	0.000183433	0.001964511	0.165475847	2172	2172	2172	0	0	1	-30	30	527.045643557	78.842023198	-526.534880248	-90.2893569613	;
	50	54	0.000298513	0.003196975	0.269289514	2172	2172	2172	0	0	1	-30	30	-564.131256025	88.1194228261	565.088356559	-105.432879213	;
	50	62	4.12e-05	0.001322961	2.693994224	14580	14580	14580	0	0	1	-30	30	-2477.04677096	-30.6445790799	2479.51773439	-166.173615104	;
	51	55	0.001436718	0.01308578	0.042471992	904	904	904	0	0	1	-30	30	-480.082154462	45.1924014115	483.361036584	-19.6703379828	;
	51	57	0.00189377	0.017248658	0.055983277	904	904	904	0	0	1	-30	30	-339.348389006	35.1254825302	341.513810915	-21.1202776273	;
	52	54	0.001933006	0.017606027	0.057143176	904	904	904	0	0	1	-30	30	145.226661944	-34.0404295366	-144.80700436	32.0389905267	;
	52	56	0.001462649	0.013321963	0.04323856	904	904	904	0	0	1	-30	30	145.204001896	-12.3200655758	-144.899034513	10.7066792737	;
	52	84	0.001585688	0.014442614	0.046875812	904	904	904	0	0	1	-30	30	-46.0045971931	11.4858574225	46.0406252687	-15.9150498768	;
	53	55	0.000288514	0.003089893	1.041078801	4344	4344	4344	0	0	1	-30	30	1998.53096939	145.435675076	-1987.39592932	-133.951456766	;
	53	58	0.000270064	0.002892303	0.243626177	2172	2172	2172	0	0	1	-30	30	-840.262884117	-24.5844337272	842.08747527	18.5897751709	;
	53	63	2.79e-05	0.000896312	1.825192122	14580	14580	14580	0	0	1	-30	30	1695.54344357	105.250717637	-1694.76532943	-270.636210077	;
	54	55	0.002132132	0.019419691	0.063029714	904	904	904	0	0	1	-30	30	-178.892584511	12.0063223543	179.564964275	-12.3340645825	;
	54	61	0.001817125	0.016550571	0.053717525	904	904	904	0	0	1	-30	30	-45.4070757482	4.53642118738	45.444671622	-9.68290535199	;
	54	62	0.000345552	0.003700749	0.311723639	2172	2172	2172	0	0	1	-30	30	-390.183835542	-18.1658894045	390.698526621	-8.23294445783	;
	55	57	0.000154208	0.001651521	0.139111914	2172	2172	2172	0	0	1	-30	30	258.352071375	34.7517637394	-258.249023456	-47.8931900799	;
	55	64	0.003142511	0.028622331	0.092898352	904	904	904	0	0	1	-30	30	-52.8508679685	19.3072222986	52.954256649	-27.8410633987	;
	56	61	0.001408725	0.01283082	0.041644479	904	904	904	0	0	1	-30	30	-10.5655031972	-26.2531331217	10.5751406676	22.1006425719	;
	57	60	0.001430752	0.01303144	0.042295623	904	904	904	0	0	1	-30	30	-254.118324761	-5.49706647105	255.021704696	9.37914236347	;
	57	97	0.000552148	0.005913329	0.498094995	2172	2172	2172	0	0	1	-30	30	-1434.54510625	79.7220883999	1445.71303068	-11.3305510615	;
	58	59	6.17e-05	0.00066	0.501	6516	6516	6516	0	0	1	-30	30	-4070.54674324	-223.995104654	4080.29652415	275.42211725	;
	58	63	0.00017	0.00182	0.613	4344	4344	4344	0	0	1	-30	30	2175.53463096	83.8525020202	-2167.85754137	-65.7811999627	;
	60	63	0.000254942	0.002730347	0.229984176	2172	2172	2172	0	0	1	-30	30	-636.637114745	-107.729161228	637.660930463	94.8552439485	;
	60	100	0.000568608	0.006089613	0.512943851	2172	2172	2172	0	0	1	-30	30	-1344.67698494	53.4491252511	1354.67331054	0.354016452204	;
	61	62	0.000190755	0.001737417	0.022556263	1808	1808	1808	0	0	1	-30	30	-396.552372563	-64.7346735978	396.853590013	65.169912692	;
	62	63	6.31e-05	0.00202596	4.125535352	14580	14580	14580	0	0	1	-30	30	-3306.48461335	-387.452482776	3313.23252995	177.908901611	;
	62	64	0.00024797	0.002655684	0.223695124	2172	2172	2172	0	0	1	-30	30	-1340.19281166	333.243817602	1344.82444122	-306.458762306	;
	63	97	0.001705746	0.015536123	0.050424972	904	904	904	0	0	1	-30	30	-224.115507173	50.0377591447	224.984025809	-47.3572182314	;
	64	96	0.001229987	0.011202852	0.036360649	904	904	904	0	0	1	-30	30	-464.732139354	-5.10672873952	467.349754975	25.230995102	;
	64	98	0.00145865	0.013285543	0.043120356	904	904	904	0	0	1	-30	30	18.2747711435	40.4115437483	-18.2438891465	-44.4810616834	;
	64	99	0.00122871	0.011191219	0.036322892	904	904	904	0	0	1	-30	30	102.427571832	61.1899988478	-102.252452495	-63.2515225646	;
	64	102	0.00020466	0.002191839	0.73849704	4344	4344	4344	0	0	1	-30	30	-1549.85597925	188.194304144	1554.80256505	-210.080019311	;
	65	68	0.001222283	0.011132689	0.036132921	904	904	904	0	0	1	-30	30	-282.187463029	-2.10065560552	283.12751937	6.90741751913	;
	65	69	0.003164497	0.028822584	0.093548306	904	904	904	0	0	1	-30	30	228.966378809	-9.69757797548	-227.363319057	14.6475244787	;
	66	67	0.001903714	0.01733923	0.056277244	904	904	904	0	0	1	-30	30	-290.938663077	45.7645060756	292.546674264	-36.906863472	;
	66	70	0.001986687	0.018094956	0.058730073	904	904	904	0	0	1	-30	30	-12.2179048306	-3.37681202755	12.2207861007	-2.64881435948	;
	67	69	0.001285688	0.011710181	0.038007266	904	904	904	0	0	1	-30	30	-315.690575651	34.2065571786	316.954681376	-26.597910383	;
	68	69	0.00309092	0.02815243	0.091373212	904	904	904	0	0	1	-30	30	347.315188407	0.835484501041	-343.740422443	22.2612056734	;
	68	71	0.000542799	0.0058132	0.489660838	2172	2172	2172	0	0	1	-30	30	-670.764919065	-12.0062438675	673.106751871	-14.1745585874	;
	69	72	0.003845431	0.035024597	0.113677932	904	904	904	0	0	1	-30	30	209.786915299	-14.7470342459	-208.137540731	18.1103864044	;
	70	72	0.001924592	0.017529395	0.056894456	904	904	904	0	0	1	-30	30	-68.4904476204	26.1829404718	68.5938623256	-31.084439743	;
	71	73	0.000429713	0.004602092	0.387646086	2172	2172	2172	0	0	1	-30	30	-897.750690357	61.0150014987	901.074720212	-66.1726833573	;
	71	78	0.005029715	0.045811184	0.148687523	904	904	904	0	0	1	-30	30	334.095400513	-17.0748305833	-328.746808262	50.1902100864	;
	72	74	0.001850173	0.016851572	0.054694473	904	904	904	0	0	1	-30	30	43.2040485279	3.3400903373	-43.1696204066	-8.61384365518	;
	73	75	0.000154736	0.001657168	0.139587554	2172	2172	2172	0	0	1	-30	30	-2161.3530808	-45.3680922877	2168.22412315	104.201163212	;
	73	76	0.003400257	0.030969904	0.100517777	904	904	904	0	0	1	-30	30	319.607556724	27.3553613656	-316.272536477	-7.39448182488	;
	73	79	0.005323371	0.048485836	0.157368535	904	904	904	0	0	1	-30	30	300.684615063	22.7433390422	-296.062365669	3.12219978851	;
	73	80	0.003287737	0.029945065	0.097191498	904	904	904	0	0	1	-30	30	251.157086125	12.4829390861	-249.176653658	-4.5678566929	;
	73	81	0.001180594	0.012643784	1.065018618	2172	2172	2172	0	0	1	-30	30	1658.6311413	114.285936825	-1627.44214938	109.772883058	;
	74	77	0.001050785	0.009570661	0.03106311	904	904	904	0	0	1	-30	30	209.037614988	20.6746411996	-208.582241955	-19.6818857764	;
	74	78	0.003080612	0.028058549	0.091068507	904	904	904	0	0	1	-30	30	-237.13013099	-20.9580791452	238.836879639	27.0883460879	;
	75	82	0.000690812	0.007398375	0.623184303	2172	2172	2172	0	0	1	-30	30	468.502335987	38.6458149077	-467.04043599	-88.6453487073	;
	76	79	0.00216439	0.019713499	0.063983315	904	904	904	0	0	1	-30	30	235.031566687	-0.825322209453	-233.859166055	5.00680848109	;
	77	81	0.002745828	0.0250093	0.081171682	904	904	904	0	0	1	-30	30	-268.164873567	32.0792202416	270.15256999	-22.1904402846	;
	78	81	0.002422622	0.022065501	0.071617111	904	904	904	0	0	1	-30	30	83.0362203909	68.2292192479	-82.7570354612	-73.065188054	;
	79	80	0.003522928	0.032087205	0.104144155	904	904	904	0	0	1	-30	30	-217.645691704	-4.69353471239	219.29651155	9.09809769485	;
	79	81	0.001905365	0.017354266	0.056326045	904	904	904	0	0	1	-30	30	359.755453327	-36.2087980611	-357.295059778	52.9192495742	;
	79	83	0.001772751	0.016146406	0.052405742	904	904	904	0	0	1	-30	30	273.051835717	17.8184387414	-271.737022593	-11.1031063424	;
	80	82	3.61e-05	0.00115912	2.360357594	14580	14580	14580	0	0	1	-30	30	-6549.34295857	-316.574445983	6564.37902093	554.314998607	;
	81	84	0.00122041	0.011115623	0.144310127	1808	1808	1808	0	0	1	-30	30	939.825298455	-65.4229412848	-929.140284139	148.122138682	;
	81	86	0.000662535	0.007095536	0.59767536	2172	2172	2172	0	0	1	-30	30	-738.918256728	67.1112996001	742.552353095	-88.6809992912	;
	82	85	0.004627741	0.042149964	0.136804449	904	904	904	0	0	1	-30	30	347.036863357	24.4814237286	-341.662228625	10.4263539087	;
	82	86	0.000927929	0.009937818	0.837088105	2172	2172	2172	0	0	1	-30	30	1575.46119264	100.865500516	-1553.24805691	50.9329220467	;
	82	94	0.005001876	0.045557628	0.147864567	904	904	904	0	0	1	-30	30	287.485826303	28.5767920964	-283.469092385	-7.12014780734	;
	83	89	0.003668123	0.033409661	0.108436396	904	904	904	0	0	1	-30	30	24.0710314304	-13.6636771329	-24.0471929188	3.05366885123	;
	85	86	0.000987046	0.00899012	0.029178874	904	904	904	0	0	1	-30	30	108.402065526	-33.7523704877	-108.276755367	31.9478741896	;
	86	87	0.000301405	0.003227955	0.271898989	2172	2172	2172	0	0	1	-30	30	353.294524531	8.48447051274	-352.921109714	-31.9401644993	;
	86	89	0.003643968	0.033189659	0.107722346	904	904	904	0	0	1	-30	30	127.928176223	-0.0930931541923	-127.337543328	-5.36343544528	;
	86	90	0.002477336	0.022563841	0.073234554	904	904	904	0	0	1	-30	30	73.5709571326	-0.756154978186	-73.4381734589	-5.42462704721	;
	86	92	0.000752885	0.008063158	0.67918067	2172	2172	2172	0	0	1	-30	30	135.754406757	-24.6774762158	-135.616531826	-42.4241733886	;
	87	90	0.002118269	0.019293421	0.062619884	904	904	904	0	0	1	-30	30	26.9378829386	-2.76712152661	-26.9226309525	-3.40225725723	;
	87	95	0.000515412	0.005519901	0.464955523	2172	2172	2172	0	0	1	-30	30	141.354977756	27.5292510811	-141.239532033	-72.9985654236	;
	88	92	0.001978682	0.018022046	0.058493431	904	904	904	0	0	1	-30	30	71.1773505354	-17.1441001312	-71.0736850822	12.1995227769	;
	88	94	0.002833759	0.025810183	0.083771075	904	904	904	0	0	1	-30	30	-85.8711724165	15.674717949	86.0901312973	-22.0831972634	;
	89	93	0.001483845	0.013515018	0.043865152	904	904	904	0	0	1	-30	30	242.211837059	-2.99628480928	-241.341646926	6.54674985316	;
	90	92	0.002453205	0.022344057	0.072521209	904	904	904	0	0	1	-30	30	-25.2788238179	-3.52354831977	25.2943953504	-3.64019813572	;
	91	147	0.00275034	0.025050396	0.081305066	904	904	904	0	0	1	-30	30	-196.936342793	40.0171428016	198.045110218	-38.0975647633	;
	92	95	0.000460572	0.004932573	0.415483409	2172	2172	2172	0	0	1	-30	30	167.413385858	34.8081175953	-167.271121421	-75.0196327253	;
	93	102	0.004195747	0.038215319	0.124033929	904	904	904	0	0	1	-30	30	76.0187852028	-36.7774788338	-75.7354491978	26.9111903775	;
	93	149	0.002966654	0.027020609	0.087699707	904	904	904	0	0	1	-30	30	-25.8708477801	44.3116490774	25.9614822387	-52.1002933491	;
	94	150	0.00258422	0.023537359	0.076394262	904	904	904	0	0	1	-30	30	179.238971272	25.3166459658	-178.387340229	-25.1233817236	;
...